Version 4
SHEET 1 1400 696
WIRE 512 -336 400 -336
WIRE 672 -336 672 -368
WIRE 816 -336 672 -336
WIRE 672 -320 672 -336
WIRE 400 -224 400 -336
WIRE 400 -224 336 -224
WIRE 416 -224 400 -224
WIRE 528 -224 496 -224
WIRE 176 -176 128 -176
WIRE 272 -176 256 -176
WIRE 672 -128 672 -176
WIRE 672 -128 576 -128
WIRE 800 -128 672 -128
WIRE 1200 -48 1056 -48
WIRE 576 -32 576 -128
WIRE 656 -32 576 -32
WIRE 800 -32 800 -128
WIRE 880 -32 800 -32
WIRE 576 0 576 -32
WIRE 800 0 800 -32
WIRE 400 32 288 32
WIRE 96 64 16 64
WIRE 288 96 288 32
WIRE 288 96 240 96
WIRE 320 96 288 96
WIRE 432 96 400 96
WIRE 1056 96 1056 -48
WIRE 1056 96 1024 96
WIRE 1104 96 1056 96
WIRE -432 112 -432 64
WIRE -320 112 -320 80
WIRE 16 144 16 64
WIRE 96 144 16 144
WIRE 1296 144 1248 144
WIRE 576 176 576 144
WIRE 672 176 576 176
WIRE 800 176 800 144
WIRE 880 176 800 176
WIRE -496 192 -496 64
WIRE -432 192 -496 192
WIRE -320 192 -432 192
WIRE 1104 208 1104 192
WIRE -320 224 -320 192
WIRE 432 272 336 272
WIRE 576 304 576 176
WIRE 800 304 800 176
WIRE 576 320 576 304
WIRE 800 320 800 304
WIRE 1216 320 1088 320
WIRE 336 352 336 272
WIRE 336 352 240 352
WIRE 432 352 336 352
WIRE 1008 352 944 352
WIRE 1088 352 1088 320
WIRE 1088 352 1008 352
WIRE 1104 352 1088 352
WIRE 16 400 16 144
WIRE 96 400 16 400
WIRE 1296 400 1296 144
WIRE 1296 400 1248 400
WIRE -16 432 -16 416
WIRE 16 432 16 400
WIRE 16 432 -16 432
WIRE 240 464 240 448
WIRE 1104 464 1104 448
WIRE -192 480 -256 480
WIRE -80 480 -112 480
WIRE 576 480 576 448
WIRE 688 480 576 480
WIRE 800 480 800 448
WIRE 800 480 688 480
WIRE -16 560 -16 528
WIRE -256 672 -256 480
WIRE 1296 672 1296 400
WIRE 1296 672 -256 672
FLAG -320 224 0
FLAG -320 80 vcc
FLAG 688 480 0
FLAG 336 -128 0
FLAG 240 192 0
FLAG 240 464 0
FLAG -16 560 0
FLAG 1104 464 0
FLAG 1104 208 0
FLAG 672 -368 vcc
FLAG 336 -304 vcc
FLAG 240 16 vcc
FLAG 240 272 vcc
FLAG 1008 272 vcc
FLAG 1104 16 vcc
FLAG -16 336 vcc
FLAG 128 -176 HAB
FLAG -256 480 GIRO
FLAG -432 64 HAB
FLAG -496 64 GIRO
DATAFLAG 32 64 ""
DATAFLAG 320 32 ""
DATAFLAG 320 32 ""
DATAFLAG 448 -336 ""
DATAFLAG 784 -336 "$-V(N004)"
DATAFLAG 608 -32 "$-V(N009)"
DATAFLAG 848 -32 "$-V(N010)"
DATAFLAG 832 176 ""
DATAFLAG 640 176 ""
DATAFLAG 1168 -48 ""
DATAFLAG 400 272 ""
DATAFLAG 1104 320 ""
SYMBOL npn 272 -224 R0
WINDOW 0 56 32 Left 2
WINDOW 3 56 68 Left 2
SYMATTR InstName Q1
SYMATTR Value BC548B
SYMBOL npn 176 352 R0
WINDOW 0 56 32 Left 2
WINDOW 3 56 68 Left 2
SYMATTR InstName Q2
SYMATTR Value BC548B
SYMBOL npn 176 96 R0
WINDOW 0 56 32 Left 2
WINDOW 3 56 68 Left 2
SYMATTR InstName Q3
SYMATTR Value BC548B
SYMBOL voltage -320 96 R0
WINDOW 123 0 0 Left 0
WINDOW 39 0 0 Left 0
SYMATTR InstName V1
SYMATTR Value 12
SYMBOL npndarlington 448 304 R0
WINDOW 0 128 80 Left 2
WINDOW 38 128 112 Left 2
SYMATTR InstName U1
SYMATTR SpiceModel TIP122
SYMBOL npndarlington 928 304 M0
WINDOW 0 128 80 Left 2
WINDOW 38 128 112 Left 2
SYMATTR InstName U2
SYMATTR SpiceModel TIP122
SYMBOL pnpdarlington 944 144 R180
WINDOW 0 144 80 Left 2
WINDOW 38 144 112 Left 2
SYMATTR InstName U4
SYMATTR SpiceModel TIP127
SYMBOL pnpdarlington 432 144 M180
WINDOW 0 144 80 Left 2
WINDOW 38 144 112 Left 2
SYMATTR InstName U5
SYMATTR SpiceModel TIP127
SYMBOL res 416 80 R90
WINDOW 0 0 56 VBottom 2
WINDOW 3 32 56 VTop 2
SYMATTR InstName R1
SYMATTR Value 1K
SYMBOL res 192 128 R90
WINDOW 0 0 56 VBottom 2
WINDOW 3 32 56 VTop 2
SYMATTR InstName R2
SYMATTR Value 8K2
SYMBOL res 256 112 R180
WINDOW 0 36 76 Left 2
WINDOW 3 36 40 Left 2
SYMATTR InstName R3
SYMATTR Value 12K
SYMBOL res 224 256 R0
WINDOW 0 36 40 Left 2
WINDOW 3 36 76 Left 2
SYMATTR InstName R4
SYMATTR Value 1K
SYMBOL res 192 384 R90
WINDOW 0 0 56 VBottom 2
WINDOW 3 32 56 VTop 2
SYMATTR InstName R5
SYMATTR Value 8K2
SYMBOL res -32 320 R0
WINDOW 0 -47 35 Left 2
WINDOW 3 -56 70 Left 2
SYMATTR InstName R6
SYMATTR Value 8K2
SYMBOL res -96 464 R90
WINDOW 0 0 56 VBottom 2
WINDOW 3 32 56 VTop 2
SYMATTR InstName R7
SYMATTR Value 220K
SYMBOL res 1040 80 R90
WINDOW 0 0 56 VBottom 2
WINDOW 3 32 56 VTop 2
SYMATTR InstName R8
SYMATTR Value 1K
SYMBOL res 1024 368 R180
WINDOW 0 36 76 Left 2
WINDOW 3 36 40 Left 2
SYMATTR InstName R9
SYMATTR Value 1K
SYMBOL res 1088 0 R0
WINDOW 0 36 40 Left 2
WINDOW 3 36 76 Left 2
SYMATTR InstName R10
SYMATTR Value 12K
SYMBOL res 1264 128 R90
WINDOW 0 0 56 VBottom 2
WINDOW 3 32 56 VTop 2
SYMATTR InstName R11
SYMATTR Value 8K2
SYMBOL res 1264 384 R90
WINDOW 0 0 56 VBottom 2
WINDOW 3 32 56 VTop 2
SYMATTR InstName R12
SYMATTR Value 8K2
SYMBOL res 512 -240 R90
WINDOW 0 0 56 VBottom 2
WINDOW 3 32 56 VTop 2
SYMATTR InstName R13
SYMATTR Value 1K
SYMBOL res 320 -320 R0
WINDOW 0 36 40 Left 2
WINDOW 3 36 76 Left 2
SYMATTR InstName R14
SYMATTR Value 12K
SYMBOL res 272 -192 R90
WINDOW 0 0 56 VBottom 2
WINDOW 3 32 56 VTop 2
SYMATTR InstName R15
SYMATTR Value 8K2
SYMBOL pnpdarlington 528 -176 M180
WINDOW 0 144 80 Left 2
WINDOW 38 144 112 Left 2
SYMATTR InstName U3
SYMATTR SpiceModel TIP127
SYMBOL npn 1168 352 M0
WINDOW 0 56 32 Left 2
WINDOW 3 56 68 Left 2
SYMATTR InstName Q4
SYMATTR Value BC548B
SYMBOL npn 1168 96 M0
WINDOW 0 56 32 Left 2
WINDOW 3 56 68 Left 2
SYMATTR InstName Q5
SYMATTR Value BC548B
SYMBOL npn -80 432 R0
WINDOW 0 56 32 Left 2
WINDOW 3 56 68 Left 2
SYMATTR InstName Q6
SYMATTR Value BC548B
SYMBOL voltage -432 96 R0
WINDOW 123 0 0 Left 0
WINDOW 39 0 0 Left 0
SYMATTR InstName V2
SYMATTR Value 3.3
TEXT -446 678 Left 2 !.op
