Version 4
SHEET 1 880 680
WIRE 272 0 208 0
WIRE 336 0 272 0
WIRE 384 0 336 0
WIRE 400 0 384 0
WIRE 208 112 208 0
WIRE 64 128 -80 128
WIRE 176 128 128 128
WIRE 336 144 240 144
WIRE 400 144 336 144
WIRE 448 144 400 144
WIRE 560 144 512 144
WIRE 624 144 560 144
WIRE 176 160 144 160
WIRE 336 192 336 144
WIRE 624 208 624 144
WIRE -80 224 -80 128
WIRE 144 256 144 160
WIRE 176 256 144 256
WIRE 336 256 256 256
WIRE -160 320 -160 304
WIRE -112 320 -160 320
WIRE -80 320 -80 304
WIRE -80 320 -112 320
WIRE 144 336 144 256
WIRE 176 336 144 336
WIRE 400 336 400 224
WIRE 400 336 240 336
WIRE 400 352 400 336
WIRE 560 352 560 208
WIRE 448 432 400 432
WIRE 560 432 448 432
WIRE 624 432 624 288
WIRE 624 432 560 432
FLAG 384 0 vcc
FLAG 272 64 0
FLAG 336 64 0
FLAG 208 176 0
FLAG 448 432 0
FLAG -112 320 0
FLAG -160 224 VCC
SYMBOL cap 128 112 R90
WINDOW 0 0 32 VBottom 2
WINDOW 3 32 32 VTop 2
SYMATTR InstName C1
SYMATTR Value 2.2µ
SYMBOL cap 240 320 R90
WINDOW 0 0 32 VBottom 2
WINDOW 3 32 32 VTop 2
SYMATTR InstName C2
SYMATTR Value 470µ
SYMBOL cap 256 0 R0
SYMATTR InstName C3
SYMATTR Value 100µ
SYMBOL cap 320 0 R0
SYMATTR InstName C4
SYMATTR Value 100n
SYMBOL cap 320 192 R0
SYMATTR InstName CX
SYMATTR Value 39n
SYMBOL cap 512 128 R90
WINDOW 0 0 32 VBottom 2
WINDOW 3 33 13 VTop 2
SYMATTR InstName C6
SYMATTR Value 1000µ
SYMBOL cap 544 144 R0
SYMATTR InstName C7
SYMATTR Value 100n
SYMBOL res 384 128 R0
WINDOW 0 36 40 Left 2
WINDOW 3 36 76 Left 2
SYMATTR InstName R1
SYMATTR Value 220
SYMBOL res 384 336 R0
WINDOW 0 36 40 Left 2
WINDOW 3 36 76 Left 2
SYMATTR InstName R2
SYMATTR Value 2.2
SYMBOL res 544 336 R0
WINDOW 0 36 40 Left 2
WINDOW 3 36 76 Left 2
SYMATTR InstName R3
SYMATTR Value 1
SYMBOL res 608 192 R0
WINDOW 0 36 40 Left 2
WINDOW 3 36 76 Left 2
SYMATTR InstName RL
SYMATTR Value 4
SYMBOL res 272 240 R90
WINDOW 0 0 56 VBottom 2
WINDOW 3 32 56 VTop 2
SYMATTR InstName RX
SYMATTR Value 39
SYMBOL voltage -160 208 R0
WINDOW 123 0 0 Left 0
WINDOW 39 0 0 Left 0
SYMATTR InstName V1
SYMATTR Value 12
SYMBOL voltage -80 208 R0
WINDOW 123 24 124 Left 2
WINDOW 39 0 0 Left 0
SYMATTR InstName V2
SYMATTR Value SINE(0 55m 50)
SYMATTR Value2 AC 1 0
SYMBOL TDA2003-2030\\TDA2003 208 144 R0
SYMATTR InstName U2
TEXT -194 456 Left 2 !.ac dec 1 1 10MEG
